16
Dimer
O         14.73558       -1.08183       -0.88758
O         16.26213        0.74274        0.33304
C         14.09114       -0.19748       -0.00364
C         15.06804        0.77421        0.61169
H         13.59187       -0.74566        0.81021
H         13.31053        0.38062       -0.52186
H         14.66393        1.51613        1.32433
H         15.67918       -0.82354       -0.86821
O        -14.43210        1.30689       -0.69127
O        -13.38831       -0.48894        0.99243
C        -15.14567        0.10783       -0.51294
C        -14.44540       -0.80954        0.45927
H        -15.26394       -0.42774       -1.46756
H        -16.15975        0.30410       -0.13189
H        -14.92378       -1.78298        0.67182
H        -13.64344        1.22521       -0.11784
